30
Coordinates from ORCA-job opt+freq
  C   -1.13931306250039     -0.78643427911176      0.89400386349027
  C   0.10210418141575     -0.18233164094778      0.68778454715985
  C   0.15800081640026      1.13199712629996      0.21668497760962
  C   -1.00613179962698      1.82568977762263     -0.04699177548970
  C   -2.23559616016287      1.21679643242123      0.15932362870677
  C   -2.30113763903628     -0.08686948903278      0.62987225368058
  H   -1.18052600099030     -1.80389591647969      1.25340359912009
  H   1.12681201292486      1.58663840975344      0.06712585582742
  H   -3.14574744135187      1.76062325508053     -0.04706140406781
  C   1.33072578915566     -0.92353737928619      0.95431062605013
  H   1.16627982392976     -1.94798900812087      1.33783784869333
  O   2.45868483353940     -0.50590903023009      0.79539764542798
  N   1.00948259848364     -2.41325580799028     -1.73645797043208
  H   1.96709616629652     -2.60368355480655     -1.46077226953288
  C   -0.48748615687271     -0.91162777274428     -2.95607024029328
  C   0.95967377241592     -1.23154931210081     -2.58991724214400
  H   1.38614130501164     -0.40230831873207     -2.01860372743061
  H   1.55650800843184     -1.34329542866548     -3.51148648033725
  H   -1.07200171115144     -0.87274134906339     -2.03577444481622
  H   -0.88733522151706     -1.72027651985807     -3.57332540820551
  H   0.67362582454574     -3.22209733033868     -2.25109762590963
  C   -0.61300154700493      0.41334165735010     -3.70271865167340
  H   -0.20893892537282      1.21240244692975     -3.07767759386703
  H   -0.01515453454624      0.37288342619353     -4.61690951024659
  H   -0.96003655847824      2.84053220116263     -0.41324362202001
  H   -3.26127649706114     -0.55555406114323      0.78730113210715
  C   -2.06215548194959      0.72663466160527     -4.05562084892962
  H   -2.13188773883932      1.68136410615202     -4.57214550061582
  H   -2.47300641719556     -0.04483444942599     -4.70371497559114
  H   -2.66814610712705      0.77490735567771     -3.15396836861478
