33
Coordinates from ORCA-job opt+freq
  C   -0.07798332009831      1.53863391276738     -1.62808227702791
  C   -0.55859568758410      1.11816733145987     -0.40152034651391
  C   0.12581652638725      0.14986372528957      0.32708905078598
  C   1.29895395395072     -0.38824884484374     -0.19010020644304
  C   1.77864960372013      0.03333702735781     -1.41722533829164
  C   1.09040892713378      0.99507453514304     -2.13860879697617
  H   -1.46574054195140      1.54651941649697      0.00123211672207
  H   1.82955378658944     -1.13369234446325      0.38319409706527
  H   1.46602860984529      1.32433975068368     -3.09635987913583
  N   -1.60313195939976     -1.60348391387681      1.04974970675514
  H   -0.95089030961262     -2.38031006048604      0.92425257410302
  C   -2.63386788121458     -1.95022931826316      2.02883397099044
  H   -3.00407599464853     -2.96542407148001      1.84384252800023
  H   -2.15499374587894     -1.93785279449741      3.01231723363427
  H   -2.00379568319239     -1.33528380026765      0.15365752395441
  H   0.89271221539226     -3.92225874264351      2.39628857906368
  H   0.72344711397910     -2.42956778937374      2.01382937848667
  C   -0.38671361599413     -0.28064351584219      1.66590812328191
  H   -1.16097368916749      0.41016101058893      2.05076755211745
  O   0.33431229268961     -0.86594130581504      2.50302958411690
  C   -3.80033050398244     -0.96853753574149      1.99043101061820
  H   -3.43488517047633      0.03933716553229      2.19325066999769
  H   -4.24162200961119     -0.97236391961030      0.99031392535204
  O   0.71176981606870     -3.34840282353610      1.64835872112364
  C   -4.87359084985977     -1.33004713582472      3.01646279302743
  H   -5.23925241034659     -2.33974041231399      2.81701936286204
  H   -4.43085195260862     -1.32871598019469      4.01472848039863
  H   2.69147933292078     -0.38959973581912     -1.81047154743331
  H   -0.61276408602792      2.29275546470923     -2.18697859784675
  C   -6.04169648839428     -0.35130618216467      2.97743663622983
  H   -6.79451184457957     -0.62826331634481      3.71176854335484
  H   -5.70274102488042      0.65852025619765      3.19907586456765
  H   -6.50722340916768     -0.34869605282399      1.99400896305911
