43
Coordinates from ORCA-job opt+freq
  C   2.41223570880955      1.42645111147569     -0.37668312276257
  C   1.05237091532550      1.66160227681064     -0.44542009002425
  C   0.14162940046736      0.62331476907826     -0.23868668022554
  C   0.62370164621402     -0.65733942108339      0.04197246501886
  C   1.98485068600272     -0.88476647591934      0.11072968412209
  C   2.88162689421047      0.15246020918853     -0.09771203365362
  H   0.68709319550175      2.65612514463343     -0.66261386227914
  H   -0.07802831971481     -1.46091236341181      0.19961722244695
  H   3.94479597868884     -0.03097441906631     -0.04320420450236
  N   -2.18120177324944      0.03070629971977     -0.19149064531749
  C   -3.56085752608535      0.40973092556123     -0.25403367162030
  H   -3.68965478936642      1.47119552649078     -0.52780699515830
  H   -4.03373866484411     -0.20664344110015     -1.02736346453497
  H   -2.14139011018078     -2.06058293159078     -0.16808027531314
  H   -1.81547864183008     -3.28220432765108     -1.20815582317543
  C   -1.28086227276615      0.90918218380155     -0.31619117512108
  H   -1.53725455251993      1.96570854615901     -0.50143958945511
  C   -4.24024002139789      0.13510772746186      1.09177863838994
  H   -3.76555610614981      0.75339277315247      1.85775383275328
  H   -4.07303113052686     -0.90913599210671      1.36181182708409
  C   -5.73706125889325      0.42970710036863      1.04292796449772
  H   -6.19780844019248     -0.16835638404678      0.25301672908970
  H   -5.88993581106804      1.48190554188775      0.78999907620037
  H   3.10781715877775      2.23696505562835     -0.53961501447191
  H   2.34902373249519     -1.87791947537724      0.32847862402364
  C   -2.89127611651882     -3.87267427914270      0.41580769101877
  H   -2.53797778157741     -4.90906867113002      0.38510612690786
  H   -2.94361484961543     -3.56952007648642      1.46586761658318
  C   -4.28935276025112     -3.79496458506891     -0.21323066038739
  H   -4.22640927964637     -4.10596215795730     -1.26070101105408
  H   -4.62964318826861     -2.75622785851848     -0.19694216285131
  C   -5.29959789107857     -4.67596466096107      0.51758509392202
  H   -5.35294310923564     -4.36896450291974      1.56484337432415
  H   -4.95221476562671     -5.71176939718134      0.49568728424926
  N   -1.88188118060786     -3.04472308523345     -0.22296963830418
  C   -6.68820619482629     -4.59361386206291     -0.10684065534721
  H   -7.38544395161581     -5.23520690827678      0.42766781678824
  H   -7.06464309291160     -3.57335605807655     -0.07019094712649
  H   -6.65901743731300     -4.91051797894829     -1.14758126916330
  C   -6.41529866410803      0.12310005752978      2.37311415165211
  H   -7.47976386401179      0.33999790892546      2.31639389412151
  H   -6.29115507934084     -0.92615782656341      2.63233055812389
  H   -5.98330791731417      0.72536404353431      3.16965308403813
