49
Coordinates from ORCA-job opt+freq
  C   0.18703578573009     -0.69126720452740      0.17280131096272
  C   -0.54507835060622     -0.27303803284044      1.28502509070343
  C   0.10160301467752      0.21569710859204      2.40277516715161
  C   1.48585565226899      0.29667965722169      2.42604231003526
  C   2.22215575165493     -0.12219988260369      1.32939865411379
  C   1.57909443658464     -0.61960110082989      0.21159555069043
  C   -0.47650539800581     -1.19499696030236     -1.01894724948491
  H   -1.62053262874035     -0.35511390882999      1.25707613003567
  H   2.15170590331857     -0.94269117926351     -0.64611812677854
  H   1.99007972646586      0.68243587660324      3.29977517354136
  N   -1.70702452533916     -1.00219138384913     -1.23893783636954
  C   -2.31947106289686     -1.53164225504105     -2.42088576676334
  H   -2.14433424049928      0.90135557768933     -0.87443833044457
  C   -3.42910714726571     -2.51470848853735     -2.03392478988480
  H   -1.58804156133158     -2.02436084316339     -3.08207317273386
  H   -2.75866982774510     -0.68862421063301     -2.96474879192221
  H   -4.09451326880579     -2.02697544461892     -1.31871183649725
  H   -2.97860700312623     -3.37434482040537     -1.53139532957111
  O   0.79790905473481      1.28916580262997     -3.65280533187965
  H   0.16082849161994     -1.73555867502709     -1.73364400081677
  H   1.75067660230029      1.40856724604638     -3.68542851545831
  O   -0.04764092251435      3.01976162503658     -1.68907334347432
  H   0.49092053294577      1.88720717875225     -2.94139965407016
  H   -0.31062787892502      3.86005423986445     -2.07457203006445
  H   -0.87912955770137      2.61533292303104     -1.32603090039272
  H   -2.51012922055896      2.08146525325894      0.20552700070454
  H   -0.47169389130581      0.53335268336449      3.26143704549658
  H   3.30045934504723     -0.06248691929694      1.34724957824597
  C   -4.22476186011524     -2.98289202812927     -3.24929727569028
  H   -4.66922535823312     -2.11666937560484     -3.74530618224258
  H   -3.54673892306941     -3.45887082431571     -3.96193260596072
  N   -2.33975757316516      1.90002847445046     -0.77884996937164
  C   -3.52283218295207      2.24777508613406     -1.56003463977182
  H   -3.28540889877869      2.05394480978957     -2.61011884815597
  H   -3.69729770870415      3.32239316523281     -1.44542968552619
  C   -4.78507822325063      1.47612258508101     -1.16518354530683
  H   -4.58374666433742      0.40617102044316     -1.25488818996432
  H   -5.01984469349096      1.68542192422896     -0.11748103371426
  C   -5.98217110460602      1.84602612910297     -2.03772896842198
  H   -5.74173322203152      1.63863992362214     -3.08318178927616
  H   -6.17430461859187      2.91800953039265     -1.94938730563350
  C   -5.32390577459820     -3.96493196713610     -2.85955350366080
  H   -6.01883445818591     -3.50436027564545     -2.16040990649284
  H   -5.88031664723251     -4.28146996997873     -3.73897278608439
  H   -4.89814876864168     -4.84741016442073     -2.38638450460288
  C   -7.23482308423433      1.07228281019656     -1.64211880392671
  H   -7.49968130789504      1.27656341258747     -0.60659195961445
  H   -8.07380839396164      1.35689762578489     -2.27326634933581
  H   -7.07282487330158      0.00188186546595     -1.74932289647366
