27
Coordinates from ORCA-job opt+freq
  C   -8.80667113574359      1.67807261885348      2.80841710326566
  C   -9.61705565108096      2.70320306975974      3.26973642504002
  C   -9.11679112915164      3.98785673642075      3.37472855136171
  C   -7.79607264271686      4.26203145411519      3.01986147260830
  C   -6.98782560996440      3.22239873282502      2.55614077255368
  C   -7.49180031620896      1.94103440666024      2.45219444564934
  H   -9.19926604628014      0.67498847260083      2.72655686380800
  H   -9.75003249982800      4.78745790550498      3.73435572509610
  H   -5.96836067822751      3.44827772981778      2.28509658923079
  C   -7.27831549891753      5.61626933237249      3.13859225310391
  H   -7.99287441959803      6.36980185764695      3.51246519952629
  N   -6.09148276710988      5.91647964567204      2.83131800435990
  C   -5.62124975023651      7.25738347995436      2.98502820084820
  C   -4.45859327068435      7.28917998189427      3.98269739987781
  H   -4.82294942110698      6.95410774769795      4.95727962564330
  H   -3.69826058584282      6.58040160069837      3.65007226322649
  H   -5.25696494406946      7.58573861592022      2.00526560247441
  H   -6.41898837737600      7.94757578481745      3.31358870142787
  C   -3.85316074952916      8.68455283774299      4.10919151483038
  H   -3.49224910220752      9.01102469817429      3.13100754921514
  H   -4.62764397863419      9.38691359912883      4.42796837460449
  H   -6.86069184991559      1.14126583283227      2.09269949297840
  H   -10.64122476584456      2.50004490157315      3.54770264240751
  C   -2.70271004559517      8.71131153263685      5.10920176039352
  H   -1.91070065600664      8.03381241881226      4.79729731188146
  H   -2.28779578802195      9.71404065271508      5.18569887957602
  H   -3.04626832010159      8.40517435315218      6.09523727501127
