36
Coordinates from ORCA-job opt+freq
  C   -0.51518933043569      0.37122347680826     -0.61073586158607
  C   -1.34938756675109      1.48229952792854     -0.55220685656208
  C   -2.67824828324098      1.34636920920744     -0.19285560229486
  C   -3.18874938351338      0.09511508502084      0.11131465163293
  C   -2.36416822724137     -1.01489081573176      0.05169222272385
  C   -1.03223080007716     -0.88035782347907     -0.30474770362587
  C   0.94659595238724      0.56893205130961     -0.96926689278541
  H   -0.95510425018608      2.45946999121225     -0.79661573618621
  H   -0.40420685918886     -1.75655641050859     -0.35316948713478
  H   -4.22660031347905     -0.01355504943155      0.38978343943503
  N   1.66911005091345      0.87171295602836      0.27903193474459
  C   3.06028277537699      1.28365733670504      0.08889988823215
  H   1.65312858005847     -0.42238063088107      1.49391833033187
  C   3.24054828175242      2.73522685693954     -0.36039365304760
  H   3.49369078316049      0.60373424736623     -0.64819163342633
  H   3.57393348254674      1.13062430478743      1.04306123746499
  H   2.77374598289569      3.39774578838823      0.37496430019030
  H   2.73644038758906      2.88814736233094     -1.31786069298629
  O   1.54398832164058     -0.50206846546565     -1.62283668096558
  O   1.74691495030987     -2.78441461967119     -0.03797840709244
  H   1.52571360125018     -1.29883761336948     -1.04911289699068
  H   2.62018370965320     -3.16304622886616     -0.16418981198587
  O   1.63317186019219     -1.17912213624559      2.12836064011188
  H   1.76511313316962     -2.34223225019990      0.83894241107795
  H   0.75945951842756     -1.16954674975273      2.52770022353650
  H   1.02162919525070      1.40471770845023     -1.68742883913781
  H   1.16297806580624      1.60050213452144      0.77649477408600
  H   -3.31569091776171      2.21758878685891     -0.15373398951593
  H   -2.75629700482689     -1.99403489337474      0.28415865182192
  C   4.71588715770454      3.10062373356794     -0.50823499093560
  H   5.17787461903636      2.43444366565317     -1.24033130951156
  H   5.22196010713689      2.94545365382354      0.44744341487512
  C   4.90007623636892      4.54781042647025     -0.95133206539581
  H   4.46208136755415      5.22935468824767     -0.22473386696483
  H   5.95704301202695      4.78463177522678     -1.04996158041153
  H   4.41981480449378      4.71710492012483     -1.91314056172192
