46
Coordinates from ORCA-job opt+freq
  C   2.64124545716541      2.16307679696812      0.49251982030531
  C   1.46617170803507      1.81591745571487      1.13590998022584
  C   0.82159007662394      0.62696438308587      0.82192891784232
  C   1.36385555907657     -0.21115345676034     -0.14507491882577
  C   2.54084737614538      0.13808001742909     -0.78487545587632
  C   3.18107418567496      1.32426306371972     -0.46841728908865
  H   1.04378617548383      2.47092044734491      1.88422594611559
  H   0.86888571096450     -1.14022749679087     -0.39079404180431
  H   4.09935884750504      1.59490090756491     -0.96876866828731
  N   -1.56432770173597      0.55946968529745      0.61714007103865
  H   -0.96181479857442     -2.40763110299435      0.27238413637211
  C   -2.89316180802139      0.44809748064656      1.20104351837917
  H   -3.09084938446454     -0.56102161970759      1.59666463889814
  H   -2.93251635234600      1.14765803709343      2.04242712449840
  H   -1.49122542056821     -0.02970034443358     -0.20563702578969
  N   -0.77071537061666     -2.92820947154132     -0.58161124924365
  H   0.33089895137846     -1.34683389042870      2.29608857302426
  C   -1.90214386672818     -2.83153691286462     -1.49175111107474
  H   -1.65730311175135     -3.41765754729434     -2.38309509042860
  H   -1.98896777674696     -1.78336433587649     -1.79683168423028
  C   -0.47893419750756      0.26319383436233      1.50298888562785
  H   -0.61181160423740      0.87886183816706      2.40848422873326
  O   -0.51427601635905     -1.11988003944621      1.89249141986402
  H   -0.63488519820559     -3.89706818317931     -0.30950316744834
  C   -3.95496189018908      0.82206674335820      0.17136435204285
  H   -3.95412815493927      0.08015231204590     -0.63059688327119
  H   -3.68777860918647      1.78568918053132     -0.26604092886713
  C   -3.23843307263141     -3.31180056225745     -0.91224132950244
  H   -3.12599372112763     -4.34480398012217     -0.56859086000792
  H   -3.48979688442604     -2.69912995402284     -0.04144953826337
  C   -5.34824513501215      0.90477371207571      0.79153287772981
  H   -5.60505952644105     -0.05795392364752      1.24022554094729
  H   -5.33944836912395      1.64819743456624      1.59188156899353
  C   -4.36993841948595     -3.24010237413544     -1.93500973516801
  H   -4.10596000265067     -3.85054302728037     -2.80197794357092
  H   -4.47947786235501     -2.20918108239765     -2.27998221300521
  C   -5.69335930337431     -3.72769025944387     -1.35591531956255
  H   -6.48291964070679     -3.66263326198856     -2.10133102316135
  H   -5.60996070736812     -4.76372979662793     -1.03337000633967
  H   -5.98150288867208     -3.12473949755051     -0.49734403578068
  C   -6.40606700985590      1.28273180387106     -0.23934776137488
  H   -7.38942527490327      1.32976589479345      0.22348937040473
  H   -6.18314337318493      2.25445871980634     -0.67442543177815
  H   -6.43870105883855      0.54809233252696     -1.04103032413760
  H   2.95539409313894     -0.52027545334421     -1.53403929022239
  H   3.13712537114385      3.08943549316669      0.74336135506802
