30
Coordinates from ORCA-job optts+freq
  C   -1.55979644658594     -0.78101363033118     -0.00056157137602
  C   -0.20961796468766     -0.48068413205506     -0.11839872988960
  C   0.19764757285180      0.84798154768356     -0.09654550169719
  C   -0.73322733006296      1.86258214589282      0.03367753543974
  C   -2.08050907508263      1.55706111751290      0.13930467167104
  C   -2.49169849582300      0.23469355088990      0.12631677641135
  H   -1.88023148072592     -1.81376140462779      0.00110140202053
  H   1.25438035077220      1.06867355382699     -0.15553453522576
  H   -2.80826577351990      2.34891605218853      0.23959789249749
  C   0.82277735352550     -1.57267806198160     -0.26963047958602
  H   0.34719930901461     -2.56112165597442     -0.09837403676595
  O   1.98944044077957     -1.41286964584630      0.38835310681031
  N   1.40372794485620     -1.57643815091981     -1.70084688858393
  H   2.37445536068520     -1.50704019932205     -1.02550240003217
  C   -0.24391710655710     -2.63313827794433     -3.22661959616640
  C   1.15505165495663     -2.69234941139161     -2.61733203991473
  H   1.91029713964708     -2.66104064038365     -3.40756943901396
  H   1.28701217720087     -3.61873930217373     -2.05313782809323
  H   -0.36286025446172     -1.69357952722424     -3.77211724665006
  H   -0.98570108849146     -2.64765624423931     -2.42598844348557
  H   1.21199417962162     -0.69034607190764     -2.17520975344834
  C   -0.49629716658135     -3.80411873816589     -4.17582565930890
  H   0.24081153772604     -3.78199924526329     -4.98123413949246
  H   -0.36771880485853     -4.74279677544507     -3.63299369156399
  H   -3.54051554092772     -0.00744594784029      0.21776917764642
  H   -0.40673013059764      2.89212808513486      0.05349718640570
  C   -1.89891716784773     -3.75094057350547     -4.77042423711963
  H   -2.05881584524258     -4.59048931060198     -5.44288404317972
  H   -2.64995103500811     -3.79366902603676     -3.98439702030415
  H   -2.04322431457536     -2.83002007994806     -5.33139046800482
