46
Coordinates from ORCA-job optts+freq
  C   1.56259966997750      1.25028079243640      0.14218347620296
  C   1.02637175359928      0.82468984172968      1.34430047205458
  C   1.78934920640419      0.06682821023196      2.22517615118908
  C   3.10326044966645     -0.22974950589235      1.89542661243936
  C   3.64367144005590      0.19849924924470      0.69513671804781
  C   2.87011951058476      0.93159751269120     -0.18827074590248
  H   0.01272876049850      1.10082291600930      1.60535068860463
  H   3.69361825943026     -0.78512961987901      2.61109492373392
  H   3.28725853879457      1.26556956296809     -1.12683146640571
  N   0.01054637715727     -1.35446744779204      3.15564628726258
  H   0.66735463886336     -2.40732880028292      3.04026884129525
  C   -0.99588236876117     -1.52458325388910      4.20614636214474
  H   -1.50418413132202     -2.48214780073997      4.04842459268296
  H   -0.45053114258382     -1.57576146374189      5.15268157975799
  H   -0.41713449016500     -1.02724371414307      2.29203430862289
  N   1.64397676528220     -3.26084229802342      3.19369450451801
  H   1.44664322599098     -4.04920913314836      3.80133886858453
  H   2.13307603758801     -2.47941530254266      3.74887557003684
  C   2.34927376089604     -3.68547201676048      1.98777035940604
  H   2.57345204831336     -2.78745952921394      1.40690997597033
  H   3.30044950551938     -4.16946875164575      2.24024766716959
  C   1.21756948696492     -0.40350226449591      3.56364329166536
  H   0.72620029961383      0.48007402118173      4.03987028371961
  O   2.03291319854926     -1.03188630125531      4.36946521696730
  C   1.49144498681016     -4.63890630491283      1.15693947954474
  H   1.26712755982206     -5.53043755100546      1.74753753029837
  H   0.54504454668431     -4.14875514602661      0.91777436857982
  C   -2.03182552690400     -0.40293092353153      4.24438127456764
  H   -1.52623220759022      0.55504439691232      4.38441871303091
  H   -2.55977286159082     -0.36961303033663      3.28704215909246
  H   4.66910897361863     -0.03979521336357      0.45285021316348
  H   0.96075976240569      1.83748452026710     -0.53624992602555
  C   2.19180230645087     -5.05073945729943     -0.13656452211139
  H   2.41932554104149     -4.15601651769067     -0.72007650222906
  H   3.13881222670230     -5.53741186770474      0.10629510890468
  C   -3.04254859769753     -0.60845776470614      5.37149792176956
  H   -2.51228365643452     -0.63578273669014      6.32576190801044
  H   -3.53816567945168     -1.57256099320156      5.23845744557729
  C   1.33270928545093     -5.99689366258278     -0.96769673059133
  H   0.39129317929215     -5.52222043866678     -1.23587346600902
  H   1.85001250529057     -6.27419517477345     -1.88302167600103
  H   1.11266844796808     -6.90427657008142     -0.40935174225542
  C   -4.08839514353010      0.50028769623874      5.40158987976483
  H   -4.79327086169374      0.33476713379927      6.21285039983472
  H   -3.61502122785931      1.46850432288084      5.55116810402807
  H   -4.64239435970335      0.53011037942860      4.46568551928762
