36
Coordinates from ORCA-job optts+freq
  C   -0.51111370195488      0.28757927640951     -0.59734305502833
  C   -1.30662971882197      1.42473829652892     -0.48796854595366
  C   -2.63722399628505      1.31721684703408     -0.12751054695652
  C   -3.18756475281531      0.07087424854171      0.12470030249752
  C   -2.40257813842231     -1.06350349950632      0.01119946878204
  C   -1.06845363367062     -0.95853470958619     -0.34773678941159
  C   0.94849126870348      0.45457552393706     -0.98364990566184
  H   -0.88555170438965      2.39809033213495     -0.69924929757428
  H   -0.46132917738598     -1.84552495208495     -0.43801769346755
  H   -4.22705625561822     -0.01579813964179      0.40424114204586
  N   1.66909616663012      0.89389297885235      0.32891451853956
  C   3.08508308544416      1.26507455411950      0.12722101291413
  H   1.62639842603938      0.04927627528193      1.01104493283213
  C   3.24625783267852      2.71162634685085     -0.32625510113678
  H   3.48342151602094      0.57609238759548     -0.62203256331941
  H   3.61912596902215      1.10275235848197      1.06580250589669
  H   2.79873949997577      3.37797048291097      0.41565458190954
  H   2.73175335844397      2.86242487593268     -1.27668668689242
  O   1.59521958354322     -0.57856256699718     -1.53117522984428
  O   1.66209608449129     -2.57126198454665     -0.08504210815505
  H   1.59418281051041     -1.53237891508688     -0.85496009096140
  H   2.53762377307703     -2.92832873083109     -0.23487997519223
  O   1.64378492808570     -1.17145531501202      1.95762126405251
  H   1.68198174248873     -1.84848653479998      1.12844520570444
  H   0.79810431573509     -1.34498611205822      2.37657403032883
  H   1.03341186842719      1.32261191928367     -1.66054233965038
  H   1.15294591056613      1.66923152942028      0.75349604041638
  H   -3.24650027798574      2.20518091247103     -0.04719574685175
  H   -2.82636902607030     -2.03848297997850      0.20158990486890
  C   4.72136149217352      3.07481914252864     -0.49812773052028
  H   5.17145845724828      2.40855204691389     -1.23644937598908
  H   5.24331707974703      2.92306952470554      0.44875131234805
  C   4.89447858119073      4.52157034837635     -0.94654508787028
  H   4.46989823760408      5.20425260834189     -0.21358072142430
  H   5.94919027613677      4.75847741993991     -1.06373252063601
  H   4.39884811943634      4.68925420353660     -1.90037511063919
