46
Coordinates from ORCA-job optts+freq
  C   3.13590485159426      0.81308655618149      0.77969075071750
  C   1.81277584698183      0.85002093575281      1.17991207305320
  C   0.78515350783095      0.65298276063136      0.25933553260567
  C   1.11601223582745      0.43926545383738     -1.07730977746143
  C   2.43971959178495      0.40627816347766     -1.47630276436955
  C   3.45374604894254      0.58628286225307     -0.54950043260616
  H   1.56496334950786      1.02831202487554      2.21749469906066
  H   0.32321923163581      0.32966207465645     -1.80091965603858
  H   4.48693988446890      0.55878950719179     -0.86199381758219
  N   -1.57420177512667      0.67018158143603     -0.19010422305332
  H   -1.00915867022061     -1.66601289082960      0.39197044737780
  C   -2.91674615447737      1.00667848212054      0.22706098646386
  H   -3.33324737417762      0.19020154387852      0.83617543183621
  H   -2.90975490166098      1.90576847148648      0.86116997642224
  H   -1.51437194171836     -0.65463223799077     -0.75633068364368
  N   -1.33312756305427     -1.77906612149333     -0.68311883357717
  H   0.23703624364079     -1.22664792210031      1.86242985077400
  C   -2.50813309533389     -2.63403631561755     -0.84912141774965
  H   -2.83061138359548     -2.62059847924620     -1.89511895710434
  H   -3.30956283786455     -2.21583389783223     -0.23756315399482
  C   -0.62186591742088      0.70702551104874      0.70530672564845
  H   -0.78021179120290      1.25798517726793      1.63841289656120
  O   -0.67174622183181     -1.03127904275899      1.62671973144395
  H   -0.56038113134951     -2.09230862919405     -1.26406732446319
  C   -3.79585040920784      1.24041425409985     -0.99978607666735
  H   -3.76698832832829      0.34887869604569     -1.62966415658183
  H   -3.37543112007767      2.06672918605092     -1.57655961403451
  C   -2.22099080998880     -4.06822904261174     -0.41115590718956
  H   -1.40876151622354     -4.47670598571002     -1.01722893501101
  H   -1.89042949028432     -4.05701365463314      0.62998250546795
  H   3.92016356083403      0.96579334913105      1.50672793527820
  H   2.68133621924023      0.24359848074137     -2.51635551432712
  C   -5.24051244911499      1.55429949994354     -0.61994683092464
  H   -5.64371746624770      0.72829199479681     -0.02858037482185
  H   -5.26089986424295      2.44848092039092      0.00776762562996
  C   -3.45152668937943     -4.96371056969901     -0.54708309987738
  H   -3.78145988069709     -4.96710825351118     -1.58801785524462
  H   -4.26231725546533     -4.55304751514793      0.05803465419062
  C   -3.16020374755987     -6.39232010418911     -0.10242067422179
  H   -4.04866984010747     -7.01090608608204     -0.20439870697348
  H   -2.36725994031387     -6.82769296205347     -0.70672826505479
  H   -2.84661176180285     -6.41125528875714      0.93919711874401
  C   -6.11526818759621      1.77510009680366     -1.84878538994934
  H   -7.13773217503691      1.99913430515125     -1.55305554312500
  H   -5.73774848022178      2.60640952604671     -2.44026313910141
  H   -6.12477040135777      0.88535358416028     -2.47460781652569
