33
Coordinates from ORCA-job optts+freq
  C   3.13039712197412      0.86576938415308      0.74423419793025
  C   1.80857213351618      0.94233279623349      1.13884542094428
  C   0.77982529915579      0.70600569055202      0.22299025241250
  C   1.10888910698770      0.41022746828009     -1.10234566418085
  C   2.43329237000502      0.33990717573406     -1.49180297124829
  C   3.44612071734507      0.56149901781478     -0.57116115459777
  H   1.55915641021662      1.17235964124124      2.16421257425353
  H   0.32339004859322      0.25360942161098     -1.82551223421963
  H   4.47906029683029      0.50193558558498     -0.87956229059644
  N   -1.60718129252894      0.60818600089930     -0.14326340191691
  H   -0.96654690031741     -1.55525118556420      0.60507871306551
  C   -2.96737802386927      0.89538750730871      0.24867286088864
  H   -3.38833312074326      0.01066014766095      0.73959401801364
  H   -2.98042073690365      1.72402290435705      0.96311821956286
  H   -1.52407421580499     -0.36624998275290     -0.66435325794678
  O   -1.32389276650021     -1.82518753914259     -0.63206245506358
  H   0.25062945902529     -1.45869433296199      1.77254602498073
  C   -0.60647114202641      0.80337367067338      0.66488355174633
  H   -0.77564344306127      1.35624509994413      1.58666356759228
  O   -0.63565085964173     -1.12161028476585      1.62178925863889
  H   -0.51090157868275     -2.04131479795877     -1.09245498907218
  C   -3.79610054032463      1.23844110659873     -0.98811536820978
  H   -3.73873362243057      0.40357840692613     -1.68925348016478
  H   -3.36744467020990      2.11730052810876     -1.47389149415326
  H   3.91700293547727      1.04530836494526      1.46171215947958
  H   2.67740575268472      0.11258263475322     -2.51884897821378
  C   -5.25650383191710      1.50970636128251     -0.63335077754253
  H   -5.67645351754742      0.62779978871149     -0.14465121988702
  H   -5.30880953448210      2.33905640495391      0.07549875300452
  C   -6.08242092330219      1.84661585821080     -1.86951684623716
  H   -7.11845384893746      2.03296595624554     -1.59605267603842
  H   -5.69123607682949      2.73511241015016     -2.36044711195381
  H   -6.05786100575057      1.02336879021156     -2.58027320127058
