30
Coordinates from ORCA-job optts+freq_TSOpt
  C   -0.66344286439425     -2.18001275783202      1.64590782802789
  C   -0.80216611770285     -3.52211893879227      1.95528630419414
  C   0.29086509723624     -4.36943546574665      1.87883377843046
  C   1.52640825474145     -3.87186191878991      1.49746792477828
  C   1.66468664115184     -2.53179516151702      1.18453480109022
  C   0.57072666840235     -1.67807548722109      1.25539975560484
  H   -1.51449579732933     -1.51654319412271      1.71435705573428
  H   -1.76475106780505     -3.90638735711549      2.26003306202537
  H   0.18127162335319     -5.41595178185993      2.12289446719206
  H   2.38339499437016     -4.52740078650911      1.44474801034566
  H   2.62399672097579     -2.11849784545095      0.90613965228034
  C   0.73875337368395     -0.21926770012218      0.89555122093078
  O   1.92621928864115      0.35418160570662      1.17662704555793
  H   -0.13690955072177      0.35105079040919      1.26636710041114
  N   0.79978326429611     -0.06184297820909     -0.64054172480710
  C   -0.23139963178038      0.68094805169697     -1.37702030103505
  C   -0.19317788833573      2.16803416807487     -1.03648258055741
  H   -1.21398073751557      0.26175081702878     -1.13947405593832
  H   -0.05251247369876      0.55053124776122     -2.44764622588354
  C   -1.24476937352075      2.95156184819418     -1.82133694855303
  H   0.80085665961906      2.55886107041155     -1.26438873864584
  H   -0.35979946425169      2.30605264250881      0.03284279343758
  H   0.97442619812011     -0.96431779608341     -1.08725964130634
  H   1.80227700642246      0.46433307977822     -0.27828335394903
  C   -1.20772172159459      4.43622619294656     -1.47897262830646
  H   -2.23625594300410      2.55264117873889     -1.59638909176162
  H   -1.06801355445714      2.82222935355315     -2.89120135153607
  H   -1.39759663787315      4.58924576404324     -0.41865808857260
  H   -1.96312808359618      4.97683935979979     -2.04455301799834
  H   -0.23354488343256      4.85902199871981     -1.71478305119022
