30
Coordinates from ORCA-job optts+freq_TSOpt
  C   -0.79063335101667     -2.66754826107328      1.84987682936910
  C   -0.29172202193779     -3.71749016746990      2.59479574879839
  C   0.98874595015972     -4.19312508901050      2.35659100218014
  C   1.76900045674484     -3.61162633361120      1.36647375512641
  C   1.28209641416417     -2.55569073679637      0.62449740934698
  C   -0.00709184489102     -2.05902326492801      0.86078315208621
  H   -1.78576097483777     -2.29265572263613      2.04010732064039
  H   -0.90213467499436     -4.16971416156299      3.36256741366372
  H   1.37767149220385     -5.01555424035978      2.93832514684342
  H   2.76367054719908     -3.98723144557329      1.17575253517298
  H   1.88881645868674     -2.10843035256941     -0.14748577244850
  C   -0.55609200015903     -0.96830670044865      0.10244880092307
  O   0.83537808563604      0.44149691050755      1.35499345322580
  H   -1.63655277567637     -0.84317706720631      0.14049672226479
  N   0.12934117322341     -0.26164218680306     -0.75878061990067
  C   -0.48980837628094      0.71652375103522     -1.62148677184760
  C   -0.16542297195361      2.14787281340584     -1.19035879697878
  H   -1.57315798268608      0.56423680117876     -1.62592842691809
  H   -0.11047553448457      0.54641960672466     -2.63495537357894
  C   -0.90746985044347      3.17635338703901     -2.04090455644479
  H   0.91138878284337      2.31149998319484     -1.27012804269493
  H   -0.43248664890614      2.26025219082422     -0.13737789127820
  H   1.00779455669053      0.05334930998722     -0.27070977241947
  H   1.31875632557546      0.70427218968619      2.14483470359904
  C   -0.56351222645846      4.60167041933548     -1.62483167927343
  H   -1.98367418902436      3.02080672520236     -1.93993165665896
  H   -0.64527232930777      3.03147879478686     -3.09112739038961
  H   -0.81862889971599      4.76544289652545     -0.57979895854501
  H   -1.11347473649320      5.31872718911983     -2.23013984277800
  H   0.50071114614039      4.79081276149536     -1.74859844108544
