33
Coordinates from ORCA-job optts+freq_TSOpt
  C   -1.00588470726868     -2.86367984934173      1.36590806640033
  C   -0.64515710080648     -3.98640138296746      2.08517885206318
  C   0.68929368872233     -4.35066019303406      2.17883630170035
  C   1.66092377066758     -3.58493654020665      1.55196990486529
  C   1.30811147027070     -2.45946301027983      0.83190957991217
  C   -0.03458039028022     -2.08499188113895      0.72822829766559
  H   -2.04510458707929     -2.57753627555996      1.29528947696706
  H   -1.40401200567855     -4.57944910059125      2.57340449751622
  H   0.97200840278784     -5.22810186159817      2.74110869907922
  H   2.70091907699699     -3.86566992086000      1.62691850009041
  H   2.06922313275824     -1.85740264699777      0.36302537679680
  C   -0.46547052022069     -0.93288594460087     -0.04811272903605
  O   1.97912727073322      0.59834796907351      0.81043897131484
  H   -1.54136080216755     -0.84394987880220     -0.19182781007748
  N   0.31735603526952     -0.27669184261060     -0.85539313460988
  C   -0.21622202636206      0.68811308305621     -1.78947342186617
  C   -0.22041707938547      2.11341377922514     -1.22960563634445
  H   -1.23790415627210      0.40225977252165     -2.05763278457452
  H   0.40679967470899      0.64624288219543     -2.68753021527289
  C   -0.93928457093567      3.08304702141848     -2.16485570943359
  H   0.80878683371284      2.44720332495059     -1.08427267269992
  H   -0.70967993150619      2.10181009872375     -0.25327825473131
  H   1.24762184406015      0.03210368947256     -0.34740433502923
  H   2.15055222875513      1.52864181727636      0.65878679713788
  C   -0.89306230029001      4.51043804550187     -1.63223883330824
  H   -1.98035276971002      2.77307811706359     -2.27667685642705
  H   -0.47139915963892      3.04696412102200     -3.15117230454592
  H   -1.35603808626904      4.56459787502655     -0.64901139230494
  H   -1.42381939713990      5.18462579869779     -2.30054699928069
  H   0.13564932570768      4.85367034566879     -1.54387057015448
  O   -0.32998578730516      0.42672981232671      1.64561137667533
  H   0.77505143293011      0.55413936769677      1.33678074428044
  H   -0.30168880976531     -0.06360659232823      2.46950821723171
